ntpoint     nskip         iascii
2            0            0
filename
/share/duan/duanl/TestDNS/testPHDF5/M6_LargeSpan/TIMESERIES/

iread_kplane (0/1)   convert_file_be_k
1                          1
ibe_k     iend_k   jbe_k   jend_k   nodes_k   ibuffer_k  
 1180      1579      1      797       840        100
num_kplane
1
1 11   

iread_iplane (0/1)   convert_file_be_i
0                          1
jbe_i  jend_i  kbe_i  kend_i  nodes_i  jbuffer_i
 1      797      1     497      40        200
num_iplane
1
1350 350

iread_jplane (0/1)    convert_file_be_j
0                          1
ibe_j  iend_j   kbe_j  kend_j  nodes_j  ibuffer_j
 200     400      1      130      5        10
num_jplane
1
1   150

############# NOTHING IS READ BELOW #######################################

ntpoint: the total number of time point
      
ibe_k, iend_k, jbe_k, jend_k, nodes_k: 
       please find this info in file kplane_index.dat

jbe_i, jend_i, kbe_i, kend_i, nodes_i: 
       please find this info in file iplane_index_ixxxx.dat

ibe_j, iend_j, kbe_j, kend_j, nodes_j:
       please find this info in file jplane_index_jxxxx.dat

num_kplane:
       number of wall-normal locations for computing the spectrum
       (indexes of streamwise-spanwise planes)


convert_file_be_k, convert_file_be_i, convert_file_be_j:
       begin number for the converted timeseries files. (could be 1,2,3,4 ...)
       The default number is 1.


ibuffer_k:   buffer size in the i-direction for kplane

jbuffer_i:   buffer size in the j-direction for iplane

ibuffer_j:   buffer size in the i-direction for jplane





